casefile/temp/WECC240_v03_Mod_NewMVA_month_4_day_4_hour_4_step1_addgen.raw
@!IC, SBASE,REV,XFRRAT,NXFRAT,BASFRQ
0,   100.00, 34,     0,     1, 60.00     / PSS(R)E-34.8    MON, MAR 21 2022  15:57
WECC 240 SYSTEM, V0.2,  MODIFIED BY NREL, INTERNAL USE ONLY
CONTACT: HAOYU.YUAN@NREL.GOV
GENERAL, THRSHZ=0.0001, PQBRAK=0.7, BLOWUP=5.0
GAUSS, ITMX=100, ACCP=1.6, ACCQ=1.6, ACCM=1.0, TOL=0.0001
NEWTON, ITMXN=300, ACCN=1.0, TOLN=0.1, VCTOLQ=0.1, VCTOLV=0.00001, DVLIM=0.99, NDVFCT=0.99
ADJUST, ADJTHR=0.005, ACCTAP=1.0, TAPLIM=0.05, SWVBND=100.0, MXTPSS=99, MXSWIM=10
TYSL, ITMXTY=20, ACCTY=1.0, TOLTY=0.00001
SOLVER, FNSL, ACTAPS=0, AREAIN=0, PHSHFT=0, DCTAPS=1, SWSHNT=1, FLATST=0, VARLIM=0, NONDIV=0
RATING, 1, "RATE1 ", "RATING SET 1                    "
RATING, 2, "RATE2 ", "RATING SET 2                    "
RATING, 3, "RATE3 ", "RATING SET 3                    "
RATING, 4, "RATE4 ", "RATING SET 4                    "
RATING, 5, "RATE5 ", "RATING SET 5                    "
RATING, 6, "RATE6 ", "RATING SET 6                    "
RATING, 7, "RATE7 ", "RATING SET 7                    "
RATING, 8, "RATE8 ", "RATING SET 8                    "
RATING, 9, "RATE9 ", "RATING SET 9                    "
RATING,10, "RATE10", "RATING SET 10                   "
RATING,11, "RATE11", "RATING SET 11                   "
RATING,12, "RATE12", "RATING SET 12                   "
0 / END OF SYSTEM-WIDE DATA, BEGIN BUS DATA
@!   I,'NAME        ', BASKV, IDE,AREA,ZONE,OWNER, VM,        VA,    NVHI,   NVLO,   EVHI,   EVLO
  1001,'FOURCORN    ', 500.0000,1,   1,   3,   1,0.69898,  36.2228,1.10000,0.90000,1.10000,0.90000
  1002,'FOURCORN    ', 345.0000,1,   1,   3,   1,0.66653,  47.2830,1.10000,0.90000,1.10000,0.90000
  1003,'FOURCORN    ', 230.0000,2,   1,  10,   1,1.00000,  41.5838,1.10000,0.90000,1.10000,0.90000
  1004,'SAN JUAN    ', 345.0000,2,   1,  10,   1,1.00000,  69.2318,1.10000,0.90000,1.10000,0.90000
  1032,'FCNGN4CC    ',  20.0000,2,   1,  10,   1,0.66789,  47.7536,1.10000,0.90000,1.10000,0.90000
  1034,'SJUAN G4    ',  20.0000,2,   1,  10,   1,0.74415,  70.8815,1.10000,0.90000,1.10000,0.90000
  1101,'CORONADO    ', 500.0000,2,   1,   3,   1,1.00000,   7.2656,1.10000,0.90000,1.10000,0.90000
  1102,'CHOLLA      ', 345.0000,2,   1,   3,   1,1.00000,  23.5869,1.10000,0.90000,1.10000,0.90000
  1131,'CORONADO    ',  20.0000,2,   1,   3,   1,0.67939,   7.9236,1.10000,0.90000,1.10000,0.90000
  1201,'MOENKOPI    ', 500.0000,2,   1,   3,   1,1.00000,  -3.2227,1.10000,0.90000,1.10000,0.90000
  1202,'NAVAJO      ', 500.0000,2,   1,   3,   1,1.00000,  -0.7542,1.10000,0.90000,1.10000,0.90000
  1232,'NAVAJO 2    ',  20.0000,3,   1,   3,   1,1.08000,   0.0000,1.10000,0.90000,1.10000,0.90000
  1301,'MEAD        ', 500.0000,2,   1,   3,   1,1.00000, -19.7656,1.10000,0.90000,1.10000,0.90000
  1302,'H ALLEN     ', 500.0000,2,   1,   9,   1,1.00000, -14.4473,1.10000,0.90000,1.10000,0.90000
  1303,'H ALLEN     ', 345.0000,1,   1,   9,   1,1.00500, -17.1397,1.10000,0.90000,1.10000,0.90000
  1331,'HOOVER      ',  20.0000,2,   1,   3,   1,1.04203, -19.6232,1.10000,0.90000,1.10000,0.90000
  1333,'H ALLEN     ',  20.0000,2,   1,   9,   1,1.00398, -16.7602,1.10000,0.90000,1.10000,0.90000
  1401,'PALOVRDE    ', 500.0000,2,   1,   3,   1,1.00000, -11.2874,1.10000,0.90000,1.10000,0.90000
  1402,'WESTWING    ', 500.0000,2,   1,   3,   1,1.00000, -15.1102,1.10000,0.90000,1.10000,0.90000
  1403,'PARKER      ', 230.0000,2,   1,   3,   1,1.00000, -13.9402,1.10000,0.90000,1.10000,0.90000
  1431,'PALOVRD2    ',  20.0000,2,   1,   3,   1,0.70609,  -9.7892,1.10000,0.90000,1.10000,0.90000
  2000,'MEXICO      ', 230.0000,2,   4,   7,   1,1.00000, -50.6480,1.10000,0.90000,1.10000,0.90000
  2030,'MEXICO      ',  20.0000,2,   4,   7,   1,0.66483, -50.3696,1.10000,0.90000,1.10000,0.90000
  2100,'IMPERIAL    ', 230.0000,2,   2,   2,   1,1.00000, -26.6229,1.10000,0.90000,1.10000,0.90000
  2130,'IMPERIAL    ',  20.0000,2,   2,   2,   1,0.89113, -26.4513,1.10000,0.90000,1.10000,0.90000
  2201,'MIGUEL      ', 500.0000,2,   2,   2,   1,1.00000, -51.6587,1.10000,0.90000,1.10000,0.90000
  2202,'MIGUEL      ', 230.0000,1,   2,   2,   1,0.78794, -53.1593,1.10000,0.90000,1.10000,0.90000
  2203,'MISSION     ', 230.0000,2,   2,   2,   1,1.00000, -55.7053,1.10000,0.90000,1.10000,0.90000
  2233,'MISSION     ',  20.0000,2,   2,   2,   1,0.81262, -55.7053,1.10000,0.90000,1.10000,0.90000
  2301,'IMPRLVLY    ', 500.0000,2,   2,   2,   1,1.00000, -35.2870,1.10000,0.90000,1.10000,0.90000
  2302,'IMPRLVLY    ', 230.0000,1,   2,   2,   1,0.73709, -35.5452,1.10000,0.90000,1.10000,0.90000
  2332,'IMPRLVLY    ',  20.0000,2,   2,   2,   1,0.73709, -35.5452,1.10000,0.90000,1.10000,0.90000
  2400,'DEVERS      ', 500.0000,2,   2,   2,   1,1.00000, -29.9004,1.10000,0.90000,1.10000,0.90000
  2401,'LUGO        ', 500.0000,2,   2,   2,   1,1.00000, -26.2427,1.10000,0.90000,1.10000,0.90000
  2402,'MIRALOMA    ', 500.0000,2,   2,   2,   1,1.00000, -32.2320,1.10000,0.90000,1.10000,0.90000
  2403,'VALLEY      ', 500.0000,2,   2,   2,   1,1.00000, -34.0020,1.10000,0.90000,1.10000,0.90000
  2404,'VINCENT     ', 500.0000,2,   2,   2,   1,1.00000, -15.9961,1.10000,0.90000,1.10000,0.90000
  2405,'SYLMAR S    ', 230.0000,2,   2,   2,   1,1.00000, -31.8601,1.10000,0.90000,1.10000,0.90000
  2406,'EAGLROCK    ', 230.0000,2,   2,   2,   1,1.00000, -32.5314,1.10000,0.90000,1.10000,0.90000
  2407,'LITEHIPE    ', 230.0000,2,   2,   2,   1,1.00000, -34.1657,1.10000,0.90000,1.10000,0.90000
  2408,'MESA CAL    ', 230.0000,2,   2,   2,   1,1.00000, -27.4955,1.10000,0.90000,1.10000,0.90000
  2409,'MIRALOMA    ', 230.0000,1,   2,   2,   1,0.88338, -35.6952,1.10000,0.90000,1.10000,0.90000
  2410,'PARDEE      ', 230.0000,2,   2,   2,   1,1.00000, -31.9252,1.10000,0.90000,1.10000,0.90000
  2411,'VINCENT     ', 230.0000,1,   2,   2,   1,0.82505, -20.9690,1.10000,0.90000,1.10000,0.90000
  2431,'LUGO        ',  20.0000,2,   2,   2,   1,0.87623, -26.2427,1.10000,0.90000,1.10000,0.90000
  2434,'VINCENT     ',  20.0000,2,   2,   2,   1,0.82505, -20.9690,1.10000,0.90000,1.10000,0.90000
  2438,'MESA CAL    ',  20.0000,2,   2,   2,   1,0.99833, -26.6660,1.10000,0.90000,1.10000,0.90000
  2439,'MIRALOMA    ',  20.0000,2,   2,   2,   1,0.88338, -35.6952,1.10000,0.90000,1.10000,0.90000
  2501,'SERRANO     ', 500.0000,2,   2,   2,   1,1.00000, -34.4667,1.10000,0.90000,1.10000,0.90000
  2502,'SERRANO     ', 230.0000,1,   2,   2,   1,0.87330, -36.4228,1.10000,0.90000,1.10000,0.90000
  2503,'S.ONOFRE    ', 230.0000,2,   2,   2,   1,1.00000, -48.4075,1.10000,0.90000,1.10000,0.90000
  2533,'S.ONOFRE    ',  20.0000,2,   2,   2,   1,0.83212, -48.4075,1.10000,0.90000,1.10000,0.90000
  2600,'ADELANTO    ', 500.0000,2,   2,   2,   1,1.00000, -25.0486,1.10000,0.90000,1.10000,0.90000
  2601,'RINALDI     ', 500.0000,2,   2,   2,   1,1.00000, -27.9429,1.10000,0.90000,1.10000,0.90000
  2602,'STA E       ', 500.0000,2,   2,   2,   1,1.00000, -31.8175,1.10000,0.90000,1.10000,0.90000
  2603,'VICTORVL    ', 500.0000,2,   2,   2,   1,1.00000, -25.0663,1.10000,0.90000,1.10000,0.90000
  2604,'INTERMT     ', 345.0000,2,   2,   2,   1,1.00000,  95.5890,1.10000,0.90000,1.10000,0.90000
  2605,'STA B1      ', 287.0000,1,   2,   2,   1,0.90967, -35.0659,1.10000,0.90000,1.10000,0.90000
  2606,'STA B2      ', 287.0000,1,   2,   2,   1,0.90967, -35.0659,1.10000,0.90000,1.10000,0.90000
  2607,'VICTORVL    ', 287.0000,1,   2,   2,   1,0.91759, -28.7853,1.10000,0.90000,1.10000,0.90000
  2608,'CASTAIC     ', 230.0000,2,   2,   2,   1,1.00000, -31.8927,1.10000,0.90000,1.10000,0.90000
  2609,'GLENDAL     ', 230.0000,2,   2,   2,   1,1.00000, -35.3137,1.10000,0.90000,1.10000,0.90000
  2610,'HAYNES      ', 230.0000,2,   2,   2,   1,1.00000, -36.8098,1.10000,0.90000,1.10000,0.90000
  2611,'OLIVE       ', 230.0000,2,   2,   2,   1,1.00000, -32.3489,1.10000,0.90000,1.10000,0.90000
  2612,'RINALDI     ', 230.0000,1,   2,   2,   1,0.90041, -32.2185,1.10000,0.90000,1.10000,0.90000
  2613,'RIVER       ', 230.0000,2,   2,   2,   1,1.00000, -36.6020,1.10000,0.90000,1.10000,0.90000
  2614,'STA BLD     ', 230.0000,1,   2,   2,   1,0.91078, -36.6072,1.10000,0.90000,1.10000,0.90000
  2615,'STA E       ', 230.0000,1,   2,   2,   1,0.90728, -34.3237,1.10000,0.90000,1.10000,0.90000
  2616,'STA F       ', 230.0000,1,   2,   2,   1,0.91164, -36.5793,1.10000,0.90000,1.10000,0.90000
  2617,'STA G       ', 230.0000,1,   2,   2,   1,0.91019, -35.7248,1.10000,0.90000,1.10000,0.90000
  2618,'STA J       ', 230.0000,1,   2,   2,   1,0.89721, -33.0917,1.10000,0.90000,1.10000,0.90000
  2619,'SYLMARLA    ', 230.0000,1,   2,   2,   1,0.89870, -31.4734,1.10000,0.90000,1.10000,0.90000
  2620,'VALLEY      ', 230.0000,1,   2,   2,   1,0.90275, -33.3056,1.10000,0.90000,1.10000,0.90000
  2621,'STA B       ', 138.0000,1,   2,   2,   1,0.90840, -36.2398,1.10000,0.90000,1.10000,0.90000
  2630,'HAYNES3G    ',  20.0000,2,   2,   2,   1,0.91322, -36.8098,1.10000,0.90000,1.10000,0.90000
  2631,'OLIVE       ',  20.0000,2,   2,   2,   1,0.89817, -32.3489,1.10000,0.90000,1.10000,0.90000
  2634,'INTERM1G    ',  20.0000,2,   2,   2,   1,0.04078,  95.4214,1.10000,0.90000,1.10000,0.90000
  2637,'OWENS G     ',  20.0000,2,   2,   2,   1,0.90061, -32.2114,1.10000,0.90000,1.10000,0.90000
  2638,'CASTAI4G    ',  20.0000,2,   2,   2,   1,0.87766, -31.8589,1.10000,0.90000,1.10000,0.90000
  2901,'ELDORADO    ', 500.0000,2,   2,   2,   1,1.00000, -16.5276,1.10000,0.90000,1.10000,0.90000
  2902,'MOHAVE      ', 500.0000,2,   2,   2,   1,1.00000, -19.5714,1.10000,0.90000,1.10000,0.90000
  3101,'EMBRCDRD    ', 230.0000,2,   2,   2,   1,1.00000,  17.8509,1.10000,0.90000,1.10000,0.90000
  3102,'MARTIN      ', 230.0000,2,   2,   2,   1,1.00000,  18.8998,1.10000,0.90000,1.10000,0.90000
  3103,'SANMATEO    ', 230.0000,2,   2,   2,   1,1.00000,  21.2177,1.10000,0.90000,1.10000,0.90000
  3104,'MARTIN      ', 115.0000,1,   2,   2,   1,0.89546,  13.2306,1.10000,0.90000,1.10000,0.90000
  3105,'POTRERO     ', 115.0000,2,   2,   2,   1,1.00000,  11.5287,1.10000,0.90000,1.10000,0.90000
  3133,'SANMATEO    ',  20.0000,2,   2,   2,   1,0.79060,  21.2177,1.10000,0.90000,1.10000,0.90000
  3135,'POTRERO     ',  20.0000,2,   2,   2,   1,0.97905,  11.5509,1.10000,0.90000,1.10000,0.90000
  3201,'C.COSTA     ', 230.0000,2,   2,   2,   1,1.00000,  26.0037,1.10000,0.90000,1.10000,0.90000
  3202,'MORAGA      ', 230.0000,2,   2,   2,   1,1.00000,  25.6344,1.10000,0.90000,1.10000,0.90000
  3203,'NEWARK      ', 230.0000,2,   2,   2,   1,1.00000,  23.7343,1.10000,0.90000,1.10000,0.90000
  3204,'PITSBURG    ', 230.0000,2,   2,   2,   1,1.00000,  25.3793,1.10000,0.90000,1.10000,0.90000
  3205,'SOBRANTE    ', 230.0000,2,   2,   2,   1,1.00000,  27.8627,1.10000,0.90000,1.10000,0.90000
  3234,'PITSBURG    ',  20.0000,2,   2,   2,   1,0.77765,  25.6560,1.10000,0.90000,1.10000,0.90000
  3301,'METCALF     ', 500.0000,2,   2,   2,   1,1.00000,  23.1316,1.10000,0.90000,1.10000,0.90000
  3302,'JEFFERSN    ', 230.0000,2,   2,   2,   1,1.00000,  17.7778,1.10000,0.90000,1.10000,0.90000
  3303,'METCALF     ', 230.0000,1,   2,   2,   1,0.78854,  19.7428,1.10000,0.90000,1.10000,0.90000
  3304,'MONTAVIS    ', 230.0000,1,   2,   2,   1,0.79416,  18.2855,1.10000,0.90000,1.10000,0.90000
  3305,'RAVENSWD    ', 230.0000,2,   2,   2,   1,1.00000,  21.8874,1.10000,0.90000,1.10000,0.90000
  3333,'METCALF     ',  20.0000,2,   2,   2,   1,0.78854,  19.7428,1.10000,0.90000,1.10000,0.90000
  3401,'GREGG       ', 230.0000,2,   2,   2,   1,1.00000,   1.5225,1.10000,0.90000,1.10000,0.90000
  3402,'HELMS PP    ', 230.0000,2,   2,   2,   1,1.00000,   0.8498,1.10000,0.90000,1.10000,0.90000
  3403,'MC CALL     ', 230.0000,2,   2,   2,   1,1.00000,  -1.4552,1.10000,0.90000,1.10000,0.90000
  3404,'PANOCHE     ', 230.0000,2,   2,   2,   1,1.00000,   2.6700,1.10000,0.90000,1.10000,0.90000
  3405,'WILSON      ', 230.0000,2,   2,   2,   1,1.00000,   5.2138,1.10000,0.90000,1.10000,0.90000
  3432,'HELMS PP    ',  20.0000,2,   2,   2,   1,0.99822,   0.8509,1.10000,0.90000,1.10000,0.90000
  3433,'MC CALL     ',  20.0000,2,   2,   2,   1,0.80971,  -1.4552,1.10000,0.90000,1.10000,0.90000
  3501,'FULTON      ', 230.0000,2,   2,   2,   1,1.00000,  54.0819,1.10000,0.90000,1.10000,0.90000
  3531,'FULTON      ',  20.0000,2,   2,   2,   1,0.97661,  54.6610,1.10000,0.90000,1.10000,0.90000
  3601,'HUMBOLDT    ', 115.0000,2,   2,   2,   1,1.00000,  53.3290,1.10000,0.90000,1.10000,0.90000
  3631,'HUMBOLDT    ',  20.0000,2,   2,   2,   1,0.99831,  53.3565,1.10000,0.90000,1.10000,0.90000
  3701,'SUMMIT      ', 115.0000,2,   1,   9,   1,1.00000,  31.7753,1.10000,0.90000,1.10000,0.90000
  3731,'SUMMIT      ',  20.0000,2,   1,   9,   1,0.46548,  31.8393,1.10000,0.90000,1.10000,0.90000
  3801,'DIABLO      ', 500.0000,2,   2,   2,   1,1.00000,  11.7379,1.10000,0.90000,1.10000,0.90000
  3802,'GATES       ', 500.0000,2,   2,   2,   1,1.00000,   0.2396,1.10000,0.90000,1.10000,0.90000
  3803,'MIDWAY      ', 500.0000,2,   2,   2,   1,1.00000,  -6.4016,1.10000,0.90000,1.10000,0.90000
  3804,'GATES       ', 230.0000,1,   2,   2,   1,0.80449,  -0.5494,1.10000,0.90000,1.10000,0.90000
  3805,'MIDWAY      ', 230.0000,1,   2,   2,   1,0.77444,  -8.0558,1.10000,0.90000,1.10000,0.90000
  3806,'MORROBAY    ', 230.0000,2,   2,   2,   1,1.00000,  -6.6235,1.10000,0.90000,1.10000,0.90000
  3831,'DIABLO1     ',  20.0000,2,   2,   2,   1,0.63454,  13.0691,1.10000,0.90000,1.10000,0.90000
  3835,'MIDWAY      ',  20.0000,2,   2,   2,   1,0.77444,  -8.0558,1.10000,0.90000,1.10000,0.90000
  3836,'MORROBAY    ',  20.0000,2,   2,   2,   1,0.79068,  -6.6235,1.10000,0.90000,1.10000,0.90000
  3891,'GATES1      ', 500.0000,2,   2,   2,   1,1.00000, -16.4751,1.10000,0.90000,1.10000,0.90000
  3892,'MIDWAY1     ', 500.0000,1,   2,   2,   1,0.71307,   4.8672,1.10000,0.90000,1.10000,0.90000
  3893,'MIDWAY2     ', 500.0000,1,   2,   2,   1,0.86818, -25.2829,1.10000,0.90000,1.10000,0.90000
  3894,'MIDWAY3     ', 500.0000,1,   2,   2,   1,0.71219,   5.0581,1.10000,0.90000,1.10000,0.90000
  3895,'MIDWAY4     ', 500.0000,1,   2,   2,   1,0.86902, -25.3337,1.10000,0.90000,1.10000,0.90000
  3896,'MIDWAY5     ', 500.0000,1,   2,   2,   1,0.71156,   5.6394,1.10000,0.90000,1.10000,0.90000
  3897,'MIDWAY6     ', 500.0000,1,   2,   2,   1,0.86608, -24.9200,1.10000,0.90000,1.10000,0.90000
  3901,'LOSBANOS    ', 500.0000,2,   2,   2,   1,1.00000,  12.2087,1.10000,0.90000,1.10000,0.90000
  3902,'MOSSLAND    ', 500.0000,2,   2,   2,   1,1.00000,  16.4712,1.10000,0.90000,1.10000,0.90000
  3903,'TESLA       ', 500.0000,2,   2,   2,   1,1.00000,  32.8245,1.10000,0.90000,1.10000,0.90000
  3904,'VACA-DIX    ', 500.0000,2,   2,   2,   1,1.00000,  35.0383,1.10000,0.90000,1.10000,0.90000
  3905,'TABLE MT    ', 500.0000,2,   2,   2,   1,1.00000,  47.6544,1.10000,0.90000,1.10000,0.90000
  3906,'ROUND MT    ', 500.0000,2,   2,   2,   1,1.00000,  57.1464,1.10000,0.90000,1.10000,0.90000
  3907,'BELLOTA     ', 230.0000,2,   2,   2,   1,1.00000,  11.6735,1.10000,0.90000,1.10000,0.90000
  3908,'BRIGHTON    ', 230.0000,2,   2,   2,   1,1.00000,  17.1109,1.10000,0.90000,1.10000,0.90000
  3909,'COLGATE     ', 230.0000,2,   2,   2,   1,1.00000,  27.1689,1.10000,0.90000,1.10000,0.90000
  3910,'CORTINA     ', 230.0000,2,   2,   2,   1,1.00000,  33.4507,1.10000,0.90000,1.10000,0.90000
  3911,'COTWDPGE    ', 230.0000,2,   2,   2,   1,1.00000,  52.6887,1.10000,0.90000,1.10000,0.90000
  3912,'GLENN       ', 230.0000,2,   2,   2,   1,1.00000,  42.7204,1.10000,0.90000,1.10000,0.90000
  3913,'GOLDHILL    ', 230.0000,2,   2,   2,   1,1.00000,  23.0950,1.10000,0.90000,1.10000,0.90000
  3914,'IGNACIO     ', 230.0000,2,   2,   2,   1,1.00000,  40.9778,1.10000,0.90000,1.10000,0.90000
  3915,'LAKEVILE    ', 230.0000,2,   2,   2,   1,1.00000,  37.2737,1.10000,0.90000,1.10000,0.90000
  3916,'LOGAN CR    ', 230.0000,2,   2,   2,   1,1.00000,  40.5958,1.10000,0.90000,1.10000,0.90000
  3917,'LOSBANOS    ', 230.0000,1,   2,   2,   1,0.78228,   7.5873,1.10000,0.90000,1.10000,0.90000
  3918,'MOSSLAND    ', 230.0000,1,   2,   2,   1,0.78705,  14.1381,1.10000,0.90000,1.10000,0.90000
  3919,'PALERMO     ', 230.0000,2,   2,   2,   1,1.00000,  30.7848,1.10000,0.90000,1.10000,0.90000
  3920,'RIO OSO     ', 230.0000,2,   2,   2,   1,1.00000,  25.6552,1.10000,0.90000,1.10000,0.90000
  3921,'ROUND MT    ', 230.0000,1,   2,   2,   1,1.07309,  64.5582,1.10000,0.90000,1.10000,0.90000
  3922,'TABLE MT    ', 230.0000,1,   2,   2,   1,0.75322,  36.5093,1.10000,0.90000,1.10000,0.90000
  3923,'TESLA       ', 230.0000,2,   2,   2,   1,0.76156,  26.8548,1.10000,0.90000,1.10000,0.90000
  3924,'VACA-DIX    ', 230.0000,1,   2,   2,   1,0.79910,  29.6794,1.10000,0.90000,1.10000,0.90000
  3925,'COTWDPGE    ', 115.0000,1,   2,   2,   1,0.98652,  53.0418,1.10000,0.90000,1.10000,0.90000
  3926,'RIO OSO     ', 115.0000,1,   2,   2,   1,0.56611,  27.1627,1.10000,0.90000,1.10000,0.90000
  3931,'ROUND MT    ',  20.0000,2,   2,   2,   1,1.06908,  65.0031,1.10000,0.90000,1.10000,0.90000
  3932,'MOSSLAND    ',  20.0000,2,   2,   2,   1,0.77255,  16.4712,1.10000,0.90000,1.10000,0.90000
  3933,'TESLA       ',  20.0000,2,   2,   2,   1,0.75845,  27.3361,1.10000,0.90000,1.10000,0.90000
  4001,'MALIN       ', 500.0000,2,   3,  11,   1,1.00000,  62.0590,1.10000,0.90000,1.10000,0.90000
  4002,'SUMMER L    ', 500.0000,2,   3,  11,   1,1.00000,  72.1429,1.10000,0.90000,1.10000,0.90000
  4003,'BURNS       ', 500.0000,2,   3,  11,   1,1.00000,  85.9595,1.10000,0.90000,1.10000,0.90000
  4004,'GRIZZLY     ', 500.0000,2,   3,  11,   1,1.00000,  75.0904,1.10000,0.90000,1.10000,0.90000
  4005,'JOHN DAY    ', 500.0000,2,   3,  11,   1,1.00000,  86.1926,1.10000,0.90000,1.10000,0.90000
  4006,'BIG EDDY    ', 500.0000,2,   3,  11,   1,1.00000,  84.9726,1.10000,0.90000,1.10000,0.90000
  4007,'CELILOCA    ', 500.0000,2,   3,  11,   1,1.00000,  84.9312,1.10000,0.90000,1.10000,0.90000
  4008,'MALIN       ', 345.0000,1,   3,  11,   1,0.88720,  59.7551,1.10000,0.90000,1.10000,0.90000
  4009,'BIG EDDY    ', 230.0000,1,   3,  11,   1,1.08000,  84.6239,1.10000,0.90000,1.10000,0.90000
  4010,'CELILO      ', 230.0000,1,   3,  11,   1,1.07434,  84.3687,1.10000,0.90000,1.10000,0.90000
  4031,'MALIN       ',  20.0000,2,   3,  11,   1,0.92931,  62.3201,1.10000,0.90000,1.10000,0.90000
  4035,'JOHN DAY    ',  20.0000,2,   3,  11,   1,1.00531,  86.7248,1.10000,0.90000,1.10000,0.90000
  4039,'DALLES21    ',  20.0000,2,   3,  13,   1,1.07537,  85.0811,1.10000,0.90000,1.10000,0.90000
  4090,'MALIN1      ', 500.0000,1,   3,  11,   1,0.90974,  70.6414,1.10000,0.90000,1.10000,0.90000
  4091,'GRIZZLY1    ', 500.0000,1,   3,  11,   1,0.94781,  73.9126,1.10000,0.90000,1.10000,0.90000
  4092,'GRIZZLY2    ', 500.0000,1,   3,  11,   1,0.94689,  65.3145,1.10000,0.90000,1.10000,0.90000
  4093,'GRIZZLY3    ', 500.0000,1,   3,  11,   1,0.94562,  64.0116,1.10000,0.90000,1.10000,0.90000
  4094,'GRIZZLY4    ', 500.0000,1,   3,  11,   1,0.96448,  73.8228,1.10000,0.90000,1.10000,0.90000
  4095,'GRIZZLY5    ', 500.0000,1,   3,  11,   1,0.94544,  64.7485,1.10000,0.90000,1.10000,0.90000
  4096,'GRIZZLY6    ', 500.0000,1,   3,  11,   1,0.94423,  63.3690,1.10000,0.90000,1.10000,0.90000
  4097,'GRIZZLY7    ', 500.0000,1,   3,  11,   1,0.96373,  73.7532,1.10000,0.90000,1.10000,0.90000
  4101,'COULEE      ', 500.0000,2,   3,  13,   1,1.00000,  99.6020,1.10000,0.90000,1.10000,0.90000
  4102,'HANFORD     ', 500.0000,2,   3,  13,   1,1.00000,  94.9186,1.10000,0.90000,1.10000,0.90000
  4103,'BELL        ', 500.0000,2,   3,  13,   1,1.00000,  92.7693,1.10000,0.90000,1.10000,0.90000
  4104,'BELL        ', 230.0000,1,   3,  13,   1,1.13357,  86.6101,1.10000,0.90000,1.10000,0.90000
  4131,'COULEE      ',  20.0000,2,   3,  13,   1,1.12509, 100.4358,1.10000,0.90000,1.10000,0.90000
  4132,'HANFORD     ',  20.0000,2,   3,  13,   1,1.08781,  95.8580,1.10000,0.90000,1.10000,0.90000
  4201,'NORTH       ', 500.0000,2,   3,  13,   1,1.00000,  97.4542,1.10000,0.90000,1.10000,0.90000
  4202,'WCASCADE    ', 500.0000,2,   3,  13,   1,1.00000,  83.7700,1.10000,0.90000,1.10000,0.90000
  4203,'WILLAMET    ', 500.0000,2,   3,  13,   1,1.00000,  79.4862,1.10000,0.90000,1.10000,0.90000
  4204,'MERIDIAN    ', 500.0000,2,   3,  13,   1,1.00000,  64.0991,1.10000,0.90000,1.10000,0.90000
  4231,'NORTH G3    ',  20.0000,2,   3,  13,   1,1.12343,  97.9853,1.10000,0.90000,1.10000,0.90000
  4232,'WCASCADE    ',  20.0000,2,   3,  13,   1,1.06759,  83.8895,1.10000,0.90000,1.10000,0.90000
  5001,'CANADA      ', 500.0000,2,   3,   4,   1,1.00000, 122.0939,1.10000,0.90000,1.10000,0.90000
  5002,'CANALB      ', 500.0000,2,   3,   1,   1,1.00000, 131.4304,1.10000,0.90000,1.10000,0.90000
  5003,'CA230TO     ', 230.0000,2,   3,   1,   1,1.00000, 126.7785,1.10000,0.90000,1.10000,0.90000
  5004,'CA230       ', 230.0000,2,   3,   4,   1,1.00000, 106.1650,1.10000,0.90000,1.10000,0.90000
  5031,'CANAD G1    ',  20.0000,2,   3,   4,   1,1.04976, 123.5030,1.10000,0.90000,1.10000,0.90000
  5032,'CMAIN GM    ',  20.0000,2,   3,   1,   1,1.04689, 133.8421,1.10000,0.90000,1.10000,0.90000
  6101,'MIDPOINT    ', 500.0000,2,   3,   6,   1,1.00000, 106.2304,1.10000,0.90000,1.10000,0.90000
  6102,'MIDPOINT    ', 345.0000,1,   3,   6,   1,0.52977, 112.0922,1.10000,0.90000,1.10000,0.90000
  6103,'BORAH       ', 345.0000,2,   3,   6,   1,1.00000, 111.1385,1.10000,0.90000,1.10000,0.90000
...
0 / END OF BUS DATA, BEGIN LOAD DATA
@!   I,'ID',STAT,AREA,ZONE,      PL,        QL,        IP,        IQ,        YP,        YQ, OWNER,SCALE,INTRPT,  DGENP,     DGENQ, DGENF
  1002,'1 ',   1,   1,   3,    77.207,   201.395,     0.000,     0.000,     0.000,     0.000,   1,    1,  0,     0.000,     0.000,   0
  1003,'1 ',   1,   1,  10,   763.639,  -133.684,     0.000,     0.000,     0.000,     0.000,   1,    1,  0,     0.000,     0.000,   0
  1004,'1 ',   1,   1,  10,   347.786,    -1.796,     0.000,     0.000,     0.000,     0.000,   1,    1,  0,     0.000,     0.000,   0
  1101,'1 ',   1,   1,   3,  1547.024,    46.365,     0.000,     0.000,     0.000,     0.000,   1,    1,  0,     0.000,     0.000,   0
  1102,'1 ',   1,   1,   3,    62.078,    -8.251,     0.000,     0.000,     0.000,     0.000,   1,    1,  0,     0.000,     0.000,   0
  1201,'1 ',   1,   1,   3,    53.143,     0.591,     0.000,     0.000,     0.000,     0.000,   1,    1,  0,     0.000,     0.000,   0
  1202,'1 ',   1,   1,   3,   279.808,   -84.958,     0.000,     0.000,     0.000,     0.000,   1,    1,  0,     0.000,     0.000,   0
  1301,'1 ',   1,   1,   3,   893.281,  -111.507,     0.000,     0.000,     0.000,     0.000,   1,    1,  0,     0.000,     0.000,   0
  1302,'1 ',   1,   1,   9,     5.897,    -0.753,     0.000,     0.000,     0.000,     0.000,   1,    1,  0,     0.000,     0.000,   0
  1303,'1 ',   1,   1,   9,  2141.177,  -277.918,     0.000,     0.000,     0.000,     0.000,   1,    1,  0,     0.000,     0.000,   0
  1401,'1 ',   1,   1,   3,  2179.283,  -491.186,     0.000,     0.000,     0.000,     0.000,   1,    1,  0,     0.000,     0.000,   0
  1402,'1 ',   1,   1,   3,  1751.219,   185.171,     0.000,     0.000,     0.000,     0.000,   1,    1,  0,     0.000,     0.000,   0
  2000,'1 ',   1,   4,   7,   755.000,   -98.486,     0.000,     0.000,     0.000,     0.000,   1,    1,  0,     0.000,     0.000,   0
  2100,'1 ',   1,   2,   2,   190.338,   -35.864,     0.000,     0.000,     0.000,     0.000,   1,    1,  0,     0.000,     0.000,   0
  2202,'1 ',   1,   2,   2,   744.957,  -131.517,     0.000,     0.000,     0.000,     0.000,   1,    1,  0,     0.000,     0.000,   0
  2203,'1 ',   1,   2,   2,   806.121,  -130.640,     0.000,     0.000,     0.000,     0.000,   1,    1,  0,     0.000,     0.000,   0
  2400,'1 ',   1,   2,   2,   416.624,   -37.009,     0.000,     0.000,     0.000,     0.000,   1,    1,  0,     0.000,     0.000,   0
  2401,'1 ',   1,   2,   2,   425.024,   -48.283,     0.000,     0.000,     0.000,     0.000,   1,    1,  0,     0.000,     0.000,   0
  2402,'1 ',   1,   2,   2,   530.431,   -39.109,     0.000,     0.000,     0.000,     0.000,   1,    1,  0,     0.000,     0.000,   0
  2403,'1 ',   1,   2,   2,   519.603,   -18.668,     0.000,     0.000,     0.000,     0.000,   1,    1,  0,     0.000,     0.000,   0
  2405,'1 ',   1,   2,   2,   412.537,   -11.334,     0.000,     0.000,     0.000,     0.000,   1,    1,  0,     0.000,     0.000,   0
  2406,'1 ',   1,   2,   2,   370.338,    20.328,     0.000,     0.000,     0.000,     0.000,   1,    1,  0,     0.000,     0.000,   0
  2407,'1 ',   1,   2,   2,   904.711,    19.698,     0.000,     0.000,     0.000,     0.000,   1,    1,  0,     0.000,     0.000,   0
  2408,'1 ',   1,   2,   2,   873.553,    36.067,     0.000,     0.000,     0.000,     0.000,   1,    1,  0,     0.000,     0.000,   0
  2409,'1 ',   1,   2,   2,   793.992,    42.133,     0.000,     0.000,     0.000,     0.000,   1,    1,  0,     0.000,     0.000,   0
  2410,'1 ',   1,   2,   2,   792.937,   -29.102,     0.000,     0.000,     0.000,     0.000,   1,    1,  0,     0.000,     0.000,   0
  2411,'1 ',   1,   2,   2,   539.014,   -36.897,     0.000,     0.000,     0.000,     0.000,   1,    1,  0,     0.000,     0.000,   0
  2502,'1 ',   1,   2,   2,  1017.237,    38.639,     0.000,     0.000,     0.000,     0.000,   1,    1,  0,     0.000,     0.000,   0
  2503,'1 ',   1,   2,   2,   802.213,   -87.000,     0.000,     0.000,     0.000,     0.000,   1,    1,  0,     0.000,     0.000,   0
  2600,'1 ',   1,   2,   2,  -827.161,     0.000,     0.000,     0.000,     0.000,     0.000,   1,    1,  0,     0.000,     0.000,   0
  2602,'1 ',   1,   2,   2,    61.053,    -7.805,     0.000,     0.000,     0.000,     0.000,   1,    1,  0,     0.000,     0.000,   0
  2604,'1 ',   1,   2,   2,   931.492,     0.000,     0.000,     0.000,     0.000,     0.000,   1,    1,  0,     0.000,     0.000,   0
  2608,'1 ',   1,   2,   2,    61.401,    -7.894,     0.000,     0.000,     0.000,     0.000,   1,    1,  0,     0.000,     0.000,   0
  2609,'1 ',   1,   2,   2,    84.251,   -16.873,     0.000,     0.000,     0.000,     0.000,   1,    1,  0,     0.000,     0.000,   0
  2610,'1 ',   1,   2,   2,    62.074,    -8.068,     0.000,     0.000,     0.000,     0.000,   1,    1,  0,     0.000,     0.000,   0
  2611,'1 ',   1,   2,   2,    61.401,    -7.894,     0.000,     0.000,     0.000,     0.000,   1,    1,  0,     0.000,     0.000,   0
  2612,'1 ',   1,   2,   2,    74.401,   -15.166,     0.000,     0.000,     0.000,     0.000,   1,    1,  0,     0.000,     0.000,   0
  2613,'1 ',   1,   2,   2,   200.689,   -41.022,     0.000,     0.000,     0.000,     0.000,   1,    1,  0,     0.000,     0.000,   0
  2614,'1 ',   1,   2,   2,    85.899,   -17.407,     0.000,     0.000,     0.000,     0.000,   1,    1,  0,     0.000,     0.000,   0
  2615,'1 ',   1,   2,   2,   501.264,   -81.617,     0.000,     0.000,     0.000,     0.000,   1,    1,  0,     0.000,     0.000,   0
  2616,'1 ',   1,   2,   2,    73.231,   -15.086,     0.000,     0.000,     0.000,     0.000,   1,    1,  0,     0.000,     0.000,   0
  2617,'1 ',   1,   2,   2,    75.660,   -15.683,     0.000,     0.000,     0.000,     0.000,   1,    1,  0,     0.000,     0.000,   0
  2618,'1 ',   1,   2,   2,   547.335,     3.782,     0.000,     0.000,     0.000,     0.000,   1,    1,  0,     0.000,     0.000,   0
  2619,'1 ',   1,   2,   2, -1281.913,     0.000,     0.000,     0.000,     0.000,     0.000,   1,    1,  0,     0.000,     0.000,   0
  2620,'1 ',   1,   2,   2,   126.775,   -10.779,     0.000,     0.000,     0.000,     0.000,   1,    1,  0,     0.000,     0.000,   0
  2621,'1 ',   1,   2,   2,   146.068,    38.455,     0.000,     0.000,     0.000,     0.000,   1,    1,  0,     0.000,     0.000,   0
  3101,'1 ',   1,   2,   2,   199.687,   -31.552,     0.000,     0.000,     0.000,     0.000,   1,    1,  0,     0.000,     0.000,   0
  3102,'1 ',   1,   2,   2,    92.797,   -14.730,     0.000,     0.000,     0.000,     0.000,   1,    1,  0,     0.000,     0.000,   0
  3103,'1 ',   1,   2,   2,   240.875,   -34.566,     0.000,     0.000,     0.000,     0.000,   1,    1,  0,     0.000,     0.000,   0
  3104,'1 ',   1,   2,   2,   180.540,   -23.755,     0.000,     0.000,     0.000,     0.000,   1,    1,  0,     0.000,     0.000,   0
  3105,'1 ',   1,   2,   2,   137.148,   -28.135,     0.000,     0.000,     0.000,     0.000,   1,    1,  0,     0.000,     0.000,   0
  3201,'1 ',   1,   2,   2,   264.149,   -56.015,     0.000,     0.000,     0.000,     0.000,   1,    1,  0,     0.000,     0.000,   0
  3202,'1 ',   1,   2,   2,   334.917,   -47.818,     0.000,     0.000,     0.000,     0.000,   1,    1,  0,     0.000,     0.000,   0
  3203,'1 ',   1,   2,   2,   375.188,   -90.661,     0.000,     0.000,     0.000,     0.000,   1,    1,  0,     0.000,     0.000,   0
  3204,'1 ',   1,   2,   2,   377.345,   -53.245,     0.000,     0.000,     0.000,     0.000,   1,    1,  0,     0.000,     0.000,   0
  3205,'1 ',   1,   2,   2,   311.653,   -44.460,     0.000,     0.000,     0.000,     0.000,   1,    1,  0,     0.000,     0.000,   0
  3302,'1 ',   1,   2,   2,   200.325,   -50.662,     0.000,     0.000,     0.000,     0.000,   1,    1,  0,     0.000,     0.000,   0
  3303,'1 ',   1,   2,   2,   356.400,   -85.887,     0.000,     0.000,     0.000,     0.000,   1,    1,  0,     0.000,     0.000,   0
  3304,'1 ',   1,   2,   2,   307.586,   -71.527,     0.000,     0.000,     0.000,     0.000,   1,    1,  0,     0.000,     0.000,   0
  3305,'1 ',   1,   2,   2,   246.745,   -35.324,     0.000,     0.000,     0.000,     0.000,   1,    1,  0,     0.000,     0.000,   0
  3401,'1 ',   1,   2,   2,   229.858,   -58.394,     0.000,     0.000,     0.000,     0.000,   1,    1,  0,     0.000,     0.000,   0
  3403,'1 ',   1,   2,   2,   203.990,   -29.091,     0.000,     0.000,     0.000,     0.000,   1,    1,  0,     0.000,     0.000,   0
  3404,'1 ',   1,   2,   2,   175.875,   -25.263,     0.000,     0.000,     0.000,     0.000,   1,    1,  0,     0.000,     0.000,   0
  3405,'1 ',   1,   2,   2,   185.827,   -27.621,     0.000,     0.000,     0.000,     0.000,   1,    1,  0,     0.000,     0.000,   0
  3501,'1 ',   1,   2,   2,   335.400,   -47.768,     0.000,     0.000,     0.000,     0.000,   1,    1,  0,     0.000,     0.000,   0
  3601,'1 ',   1,   2,   2,    70.345,    -9.812,     0.000,     0.000,     0.000,     0.000,   1,    1,  0,     0.000,     0.000,   0
  3701,'1 ',   1,   1,   9,   155.800,    -7.787,     0.000,     0.000,     0.000,     0.000,   1,    1,  0,     0.000,     0.000,   0
  3801,'1 ',   1,   2,   2,   118.732,   -28.063,     0.000,     0.000,     0.000,     0.000,   1,    1,  0,     0.000,     0.000,   0
  3804,'1 ',   1,   2,   2,   146.061,   -36.227,     0.000,     0.000,     0.000,     0.000,   1,    1,  0,     0.000,     0.000,   0
  3805,'1 ',   1,   2,   2,   314.269,   -99.173,     0.000,     0.000,     0.000,     0.000,   1,    1,  0,     0.000,     0.000,   0
  3806,'1 ',   1,   2,   2,   185.100,   -25.948,     0.000,     0.000,     0.000,     0.000,   1,    1,  0,     0.000,     0.000,   0
  3902,'1 ',   1,   2,   2,    66.627,   -16.657,     0.000,     0.000,     0.000,     0.000,   1,    1,  0,     0.000,     0.000,   0
  3903,'1 ',   1,   2,   2,    92.298,   -13.021,     0.000,     0.000,     0.000,     0.000,   1,    1,  0,     0.000,     0.000,   0
  3907,'1 ',   1,   2,   2,   208.253,   -29.509,     0.000,     0.000,     0.000,     0.000,   1,    1,  0,     0.000,     0.000,   0
  3908,'1 ',   1,   2,   2,    90.423,   -11.568,     0.000,     0.000,     0.000,     0.000,   1,    1,  0,     0.000,     0.000,   0
  3909,'1 ',   1,   2,   2,    77.125,   -18.593,     0.000,     0.000,     0.000,     0.000,   1,    1,  0,     0.000,     0.000,   0
  3910,'1 ',   1,   2,   2,   110.537,   -16.521,     0.000,     0.000,     0.000,     0.000,   1,    1,  0,     0.000,     0.000,   0
  3911,'1 ',   1,   2,   2,    98.890,   -19.465,     0.000,     0.000,     0.000,     0.000,   1,    1,  0,     0.000,     0.000,   0
  3912,'1 ',   1,   2,   2,    75.931,     0.276,     0.000,     0.000,     0.000,     0.000,   1,    1,  0,     0.000,     0.000,   0
  3913,'1 ',   1,   2,   2,   145.650,   -19.482,     0.000,     0.000,     0.000,     0.000,   1,    1,  0,     0.000,     0.000,   0
  3914,'1 ',   1,   2,   2,   100.282,   -23.393,     0.000,     0.000,     0.000,     0.000,   1,    1,  0,     0.000,     0.000,   0
  3915,'1 ',   1,   2,   2,   111.704,   -23.631,     0.000,     0.000,     0.000,     0.000,   1,    1,  0,     0.000,     0.000,   0
  3916,'1 ',   1,   2,   2,    67.630,     0.000,     0.000,     0.000,     0.000,     0.000,   1,    1,  0,     0.000,     0.000,   0
  3917,'1 ',   1,   2,   2,   103.627,   -19.122,     0.000,     0.000,     0.000,     0.000,   1,    1,  0,     0.000,     0.000,   0
  3918,'1 ',   1,   2,   2,   140.105,   -33.367,     0.000,     0.000,     0.000,     0.000,   1,    1,  0,     0.000,     0.000,   0
  3919,'1 ',   1,   2,   2,    83.068,   -11.214,     0.000,     0.000,     0.000,     0.000,   1,    1,  0,     0.000,     0.000,   0
  3920,'1 ',   1,   2,   2,    76.853,   -10.792,     0.000,     0.000,     0.000,     0.000,   1,    1,  0,     0.000,     0.000,   0
  3921,'1 ',   1,   2,   2,    61.413,   -13.245,     0.000,     0.000,     0.000,     0.000,   1,    1,  0,     0.000,     0.000,   0
  3922,'1 ',   1,   2,   2,   112.171,   -14.357,     0.000,     0.000,     0.000,     0.000,   1,    1,  0,     0.000,     0.000,   0
  3923,'1 ',   1,   2,   2,   171.029,   -28.267,     0.000,     0.000,     0.000,     0.000,   1,    1,  0,     0.000,     0.000,   0
  3924,'1 ',   1,   2,   2,   145.236,   -20.665,     0.000,     0.000,     0.000,     0.000,   1,    1,  0,     0.000,     0.000,   0
  3926,'1 ',   1,   2,   2,   118.171,    -7.477,     0.000,     0.000,     0.000,     0.000,   1,    1,  0,     0.000,     0.000,   0
  4002,'1 ',   1,   3,  11,   100.007,   -11.945,     0.000,     0.000,     0.000,     0.000,   1,    1,  0,     0.000,     0.000,   0
  4004,'1 ',   1,   3,  11,   160.640,   -19.239,     0.000,     0.000,     0.000,     0.000,   1,    1,  0,     0.000,     0.000,   0
  4005,'1 ',   1,   3,  11,   287.745,   -87.357,     0.000,     0.000,     0.000,     0.000,   1,    1,  0,     0.000,     0.000,   0
  4008,'1 ',   1,   3,  11,   171.597,   -20.812,     0.000,     0.000,     0.000,     0.000,   1,    1,  0,     0.000,     0.000,   0
  4009,'1 ',   1,   3,  11,  1323.758,  -239.395,     0.000,     0.000,     0.000,     0.000,   1,    1,  0,     0.000,     0.000,   0
  4010,'1 ',   1,   3,  11,  1358.641,     0.000,     0.000,     0.000,     0.000,     0.000,   1,    1,  0,     0.000,     0.000,   0
  4101,'1 ',   1,   3,  13,   570.970,   -66.022,     0.000,     0.000,     0.000,     0.000,   1,    1,  0,     0.000,     0.000,   0
  4102,'1 ',   1,   3,  13,   283.860,   -36.999,     0.000,     0.000,     0.000,     0.000,   1,    1,  0,     0.000,     0.000,   0
  4103,'1 ',   1,   3,  13,     6.994,    -0.843,     0.000,     0.000,     0.000,     0.000,   1,    1,  0,     0.000,     0.000,   0
  4104,'1 ',   1,   3,  13,  1569.627,  -196.427,     0.000,     0.000,     0.000,     0.000,   1,    1,  0,     0.000,     0.000,   0
  4201,'1 ',   1,   3,  13,  3330.368,  -237.884,     0.000,     0.000,     0.000,     0.000,   1,    1,  0,     0.000,     0.000,   0
  4202,'1 ',   1,   3,  13,  2783.419,  -342.546,     0.000,     0.000,     0.000,     0.000,   1,    1,  0,     0.000,     0.000,   0
  4203,'1 ',   1,   3,  13,  2788.729,  -357.881,     0.000,     0.000,     0.000,     0.000,   1,    1,  0,     0.000,     0.000,   0
  4204,'1 ',   1,   3,  13,   614.669,   -75.053,     0.000,     0.000,     0.000,     0.000,   1,    1,  0,     0.000,     0.000,   0
  5001,'1 ',   1,   3,   4,  4932.198, -1067.575,     0.000,     0.000,     0.000,     0.000,   1,    1,  0,     0.000,     0.000,   0
  5002,'1 ',   1,   3,   1,  6156.533,  -761.115,     0.000,     0.000,     0.000,     0.000,   1,    1,  0,     0.000,     0.000,   0
  5003,'1 ',   1,   3,   1,   402.912,   -50.341,     0.000,     0.000,     0.000,     0.000,   1,    1,  0,     0.000,     0.000,   0
  6102,'1 ',   1,   3,   6,   371.216,   118.160,     0.000,     0.000,     0.000,     0.000,   1,    1,  0,     0.000,     0.000,   0
  6103,'1 ',   1,   3,   6,   140.305,   -18.045,     0.000,     0.000,     0.000,     0.000,   1,    1,  0,     0.000,     0.000,   0
  6104,'1 ',   1,   3,   6,   611.263,   -79.199,     0.000,     0.000,     0.000,     0.000,   1,    1,  0,     0.000,     0.000,   0
  6201,'1 ',   1,   3,   8,    72.144,    -8.881,     0.000,     0.000,     0.000,     0.000,   1,    1,  0,     0.000,     0.000,   0
  6202,'1 ',   1,   3,   8,    30.214,    -4.223,     0.000,     0.000,     0.000,     0.000,   1,    1,  0,     0.000,     0.000,   0
  6203,'1 ',   1,   3,   8,   226.366,   -53.365,     0.000,     0.000,     0.000,     0.000,   1,    1,  0,     0.000,     0.000,   0
  6204,'1 ',   1,   3,   8,   248.030,   -52.975,     0.000,     0.000,     0.000,     0.000,   1,    1,  0,     0.000,     0.000,   0
  6205,'1 ',   1,   3,   8,   173.138,   -29.099,     0.000,     0.000,     0.000,     0.000,   1,    1,  0,     0.000,     0.000,   0
  6301,'1 ',   1,   3,  14,   188.990,   -24.285,     0.000,     0.000,     0.000,     0.000,   1,    1,  0,     0.000,     0.000,   0
  6302,'1 ',   1,   3,  14,   218.628,   -28.362,     0.000,     0.000,     0.000,     0.000,   1,    1,  0,     0.000,     0.000,   0
  6303,'1 ',   1,   3,  14,   269.322,   -34.113,     0.000,     0.000,     0.000,     0.000,   1,    1,  0,     0.000,     0.000,   0
  6305,'1 ',   1,   3,  14,    21.113,    -6.532,     0.000,     0.000,     0.000,     0.000,   1,    1,  0,     0.000,     0.000,   0
  6401,'1 ',   1,   1,   9,   769.670,   -97.757,     0.000,     0.000,     0.000,     0.000,   1,    1,  0,     0.000,     0.000,   0
  6402,'1 ',   1,   1,   9,   128.022,   -16.607,     0.000,     0.000,     0.000,     0.000,   1,    1,  0,     0.000,     0.000,   0
  6403,'1 ',   1,   1,   9,     0.936,    -0.104,     0.000,     0.000,     0.000,     0.000,   1,    1,  0,     0.000,     0.000,   0
  6404,'1 ',   1,   1,   9,    12.997,    -1.607,     0.000,     0.000,     0.000,     0.000,   1,    1,  0,     0.000,     0.000,   0
  6501,'1 ',   1,   3,  12,    71.722,   -23.219,     0.000,     0.000,     0.000,     0.000,   1,    1,  0,     0.000,     0.000,   0
  6502,'1 ',   1,   3,  12,   571.941,  -101.026,     0.000,     0.000,     0.000,     0.000,   1,    1,  0,     0.000,     0.000,   0
  6503,'1 ',   1,   3,  12,   153.908,   -47.370,     0.000,     0.000,     0.000,     0.000,   1,    1,  0,     0.000,     0.000,   0
  6504,'1 ',   1,   3,  12,   109.134,   -14.078,     0.000,     0.000,     0.000,     0.000,   1,    1,  0,     0.000,     0.000,   0
  6505,'1 ',   1,   3,  12,     2.436,    -0.771,     0.000,     0.000,     0.000,     0.000,   1,    1,  0,     0.000,     0.000,   0
  6507,'1 ',   1,   3,  12,   196.118,    21.718,     0.000,     0.000,     0.000,     0.000,   1,    1,  0,     0.000,     0.000,   0
  6508,'1 ',   1,   3,  12,    47.927,   -15.369,     0.000,     0.000,     0.000,     0.000,   1,    1,  0,     0.000,     0.000,   0
  6509,'1 ',   1,   3,  12,     3.156,    -1.023,     0.000,     0.000,     0.000,     0.000,   1,    1,  0,     0.000,     0.000,   0
  6510,'1 ',   1,   3,  12,   732.672,    41.573,     0.000,     0.000,     0.000,     0.000,   1,    1,  0,     0.000,     0.000,   0
  7001,'1 ',   1,   3,   5,  2550.205,  -275.825,     0.000,     0.000,     0.000,     0.000,   1,    1,  0,     0.000,     0.000,   0
  7002,'1 ',   1,   3,   5,   935.227,    49.795,     0.000,     0.000,     0.000,     0.000,   1,    1,  0,     0.000,     0.000,   0
  8003,'1 ',   1,   2,   2,   132.243,   -16.047,     0.000,     0.000,     0.000,     0.000,   1,    1,  0,     0.000,     0.000,   0
  8004,'1 ',   1,   2,   2,   825.055,  -107.624,     0.000,     0.000,     0.000,     0.000,   1,    1,  0,     0.000,     0.000,   0
  8005,'1 ',   1,   2,   2,   293.618,   -39.082,     0.000,     0.000,     0.000,     0.000,   1,    1,  0,     0.000,     0.000,   0
0 / END OF LOAD DATA, BEGIN FIXED SHUNT DATA
@!   I,'ID',STATUS,  GL,        BL
0 / END OF FIXED SHUNT DATA, BEGIN GENERATOR DATA
@!   I,'ID',      PG,        QG,        QT,        QB,     VS,    IREG,     MBASE,     ZR,         ZX,         RT,         XT,     GTAP,STAT, RMPCT,      PT,        PB,    O1,    F1,  O2,    F2,  O3,    F3,  O4,    F4,WMOD, WPF,NREG
  1003,'AD',     0.000,     0.000, 99999.000,-99999.000,1.00000,  1003,   100.000, 0.00000E+0, 1.00000E+0, 0.00000E+0, 0.00000E+0,1.00000,1,  100.0, 99999.000,-99999.000,   1,1.0000
  1004,'AD',     0.000,     0.000, 99999.000,-99999.000,1.00000,  1004,   100.000, 0.00000E+0, 1.00000E+0, 0.00000E+0, 0.00000E+0,1.00000,1,  100.0, 99999.000,-99999.000,   1,1.0000
  1032,'AD',     0.000,     0.000, 99999.000,-99999.000,1.01400,  1002,   100.000, 0.00000E+0, 1.00000E+0, 0.00000E+0, 0.00000E+0,1.00000,1,  100.0, 99999.000,-99999.000,   1,1.0000
  1032,'C ',   873.000,   200.000,   200.000,  -200.000,1.01400,  1002,   895.617, 0.00000E+0, 2.00000E-1, 0.00000E+0, 0.00000E+0,1.00000,1,  100.0,   873.000,     0.000,   1,1.0000
  1032,'G ',     0.000,   344.074,   357.000,  -357.000,1.01400,  1002,  1109.031, 0.00000E+0, 2.00000E-1, 0.00000E+0, 0.00000E+0,1.00000,0,  100.0,  1050.000,     0.000,   1,1.0000
  1032,'S ',     0.000,   209.017,   255.200,  -255.200,1.01400,  1002,   687.147, 0.00000E+0, 2.00000E-1, 0.00000E+0, 0.00000E+0,1.00000,0,  100.0,   638.000,     0.000,   1,1.0000,   0,   1.0,   0,   1.0,   0,   1.0, 1, 1.0000
  1034,'C ',  1944.000,   500.000,   500.000,  -500.000,1.03000,  1004,  2007.271, 0.00000E+0, 2.00000E-1, 0.00000E+0, 0.00000E+0,1.00000,1,  100.0,  1944.000,     0.000,   1,1.0000
  1034,'G ',     0.000,   168.193,   918.000,  -918.000,1.03000,  1004,  2851.793, 0.00000E+0, 2.00000E-1, 0.00000E+0, 0.00000E+0,1.00000,0,  100.0,  2700.000,     0.000,   1,1.0000
  1034,'W ',  1381.268,   672.800,   672.800,  -672.800,1.03000,  1004,  1811.569, 0.00000E+0, 2.00000E-1, 0.00000E+0, 0.00000E+0,1.00000,1,  100.0,  1682.000,     0.000,   1,1.0000,   0,   1.0,   0,   1.0,   0,   1.0, 1, 1.0000
  1101,'AD',     0.000,     0.000, 99999.000,-99999.000,1.00000,  1101,   100.000, 0.00000E+0, 1.00000E+0, 0.00000E+0, 0.00000E+0,1.00000,1,  100.0, 99999.000,-99999.000,   1,1.0000
  1102,'AD',     0.000,     0.000, 99999.000,-99999.000,1.00000,  1102,   100.000, 0.00000E+0, 1.00000E+0, 0.00000E+0, 0.00000E+0,1.00000,1,  100.0, 99999.000,-99999.000,   1,1.0000
  1131,'C ',  1268.000,   308.000,   308.000,  -308.000,1.01000,  1101,  1304.871, 0.00000E+0, 2.00000E-1, 0.00000E+0, 0.00000E+0,1.00000,1,  100.0,  1268.000,     0.000,   1,1.0000
  1131,'G ',     0.000,   121.365,  1916.000, -1916.000,1.01000,  1101,  5292.958, 0.00000E+0, 2.00000E-1, 0.00000E+0, 0.00000E+0,1.00000,0,  100.0,  4934.000,     0.000,   1,1.0000
  1201,'AD',     0.000,     0.000, 99999.000,-99999.000,1.00000,  1201,   100.000, 0.00000E+0, 1.00000E+0, 0.00000E+0, 0.00000E+0,1.00000,1,  100.0, 99999.000,-99999.000,   1,1.0000
  1202,'AD',     0.000,     0.000, 99999.000,-99999.000,1.00000,  1202,   100.000, 0.00000E+0, 1.00000E+0, 0.00000E+0, 0.00000E+0,1.00000,1,  100.0, 99999.000,-99999.000,   1,1.0000
  1232,'C ',  2360.344, 15437.183,  1208.000, -1208.000,1.08000,  1202,  5121.503, 0.00000E+0, 2.00000E-1, 0.00000E+0, 0.00000E+0,1.00000,1,  100.0,  4977.000,     0.000,   1,1.0000
  1232,'H ',   467.085,  3054.841,   479.600,  -479.600,1.08000,  1202,  1291.363, 0.00000E+0, 2.00000E-1, 0.00000E+0, 0.00000E+0,1.00000,1,  100.0,  1199.000,     0.000,   1,1.0000
  1301,'AD',     0.000,     0.000, 99999.000,-99999.000,1.00000,  1301,   100.000, 0.00000E+0, 1.00000E+0, 0.00000E+0, 0.00000E+0,1.00000,1,  100.0, 99999.000,-99999.000,   1,1.0000
  1302,'AD',     0.000,     0.000, 99999.000,-99999.000,1.00000,  1302,   100.000, 0.00000E+0, 1.00000E+0, 0.00000E+0, 0.00000E+0,1.00000,1,  100.0, 99999.000,-99999.000,   1,1.0000
  1331,'G ',     0.000,    37.119,   841.000,  -841.000,1.04500,  1301,  2324.472, 0.00000E+0, 2.00000E-1, 0.00000E+0, 0.00000E+0,1.00000,0,  100.0,  2167.000,     0.000,   1,1.0000
  1331,'H ',   535.627,   931.200,   931.200,  -931.200,1.04500,  1301,  2507.333, 0.00000E+0, 2.00000E-1, 0.00000E+0, 0.00000E+0,1.00000,1,  100.0,  2328.000,     0.000,   1,1.0000
  1333,'C ',   418.000,   125.836,   167.200,  -167.200,1.00500,  1303,   450.200, 0.00000E+0, 2.00000E-1, 0.00000E+0, 0.00000E+0,1.00000,1,  100.0,   418.000,     0.000,   1,1.0000
  1333,'G ',   917.773,   276.290,  2746.000, -2746.000,1.00500,  1303,  7529.584, 0.00000E+0, 2.00000E-1, 0.00000E+0, 0.00000E+0,1.00000,1,  100.0,  7011.000,     0.000,   1,1.0000
  1333,'S ',     0.000,   205.553,   969.200,  -969.200,1.00500,  1303,  2609.651, 0.00000E+0, 2.00000E-1, 0.00000E+0, 0.00000E+0,1.00000,0,  100.0,  2423.000,     0.000,   1,1.0000,   0,   1.0,   0,   1.0,   0,   1.0, 1, 1.0000
  1401,'AD',     0.000,     0.000, 99999.000,-99999.000,1.00000,  1401,   100.000, 0.00000E+0, 1.00000E+0, 0.00000E+0, 0.00000E+0,1.00000,1,  100.0, 99999.000,-99999.000,   1,1.0000
  1402,'AD',     0.000,     0.000, 99999.000,-99999.000,1.00000,  1402,   100.000, 0.00000E+0, 1.00000E+0, 0.00000E+0, 0.00000E+0,1.00000,1,  100.0, 99999.000,-99999.000,   1,1.0000
  1403,'AD',     0.000,     0.000, 99999.000,-99999.000,1.00000,  1403,   100.000, 0.00000E+0, 1.00000E+0, 0.00000E+0, 0.00000E+0,1.00000,1,  100.0, 99999.000,-99999.000,   1,1.0000
  1431,'G ',     0.000,   797.425,  3559.000, -3559.000,1.03500,  1401,  9836.432, 0.00000E+0, 2.00000E-1, 0.00000E+0, 0.00000E+0,1.00000,0,  100.0,  9170.000,     0.000,   1,1.0000
  1431,'N ',  3066.000, -1684.000,  1684.000, -1684.000,1.03500,  1401,  4534.309, 0.00000E+0, 2.00000E-1, 0.00000E+0, 0.00000E+0,1.00000,1,  100.0,  4210.000,     0.000,   1,1.0000
  1431,'S ',     0.000,   210.356,   967.600,  -967.600,1.03500,  1401,  2605.343, 0.00000E+0, 2.00000E-1, 0.00000E+0, 0.00000E+0,1.00000,0,  100.0,  2419.000,     0.000,   1,1.0000,   0,   1.0,   0,   1.0,   0,   1.0, 1, 1.0000
  2000,'AD',     0.000,     0.000, 99999.000,-99999.000,1.00000,  2000,   100.000, 0.00000E+0, 1.00000E+0, 0.00000E+0, 0.00000E+0,1.00000,1,  100.0, 99999.000,-99999.000,   1,1.0000
  2030,'E ',   520.000,  -279.600,   279.600,  -279.600,1.00000,  2000,   752.846, 0.00000E+0, 2.00000E-1, 0.00000E+0, 0.00000E+0,1.00000,1,  100.0,   699.000,     0.000,   1,1.0000
  2030,'G ',     0.000,   235.477,   856.000,  -856.000,1.00000,  2000,  2304.851, 0.00000E+0, 2.00000E-1, 0.00000E+0, 0.00000E+0,1.00000,0,  100.0,  2140.000,     0.000,   1,1.0000
  2100,'AD',     0.000,     0.000, 99999.000,-99999.000,1.00000,  2100,   100.000, 0.00000E+0, 1.00000E+0, 0.00000E+0, 0.00000E+0,1.00000,1,  100.0, 99999.000,-99999.000,   1,1.0000
  2130,'E ',   407.000,   254.000,   254.000,  -254.000,1.03500,  2100,   868.952, 0.00000E+0, 2.00000E-1, 0.00000E+0, 0.00000E+0,1.00000,1,  100.0,   831.000,     0.000,   1,1.0000
  2130,'G ',     0.000,    54.601,   200.000,  -200.000,1.03500,  2100,   619.190, 0.00000E+0, 2.00000E-1, 0.00000E+0, 0.00000E+0,1.00000,0,  100.0,   586.000,     0.000,   1,1.0000
  2130,'H ',    91.034,   158.400,   158.400,  -158.400,1.03500,  2100,   426.505, 0.00000E+0, 2.00000E-1, 0.00000E+0, 0.00000E+0,1.00000,1,  100.0,   396.000,     0.000,   1,1.0000
  2130,'S ',     0.000,    10.677,    46.000,   -46.000,1.03500,  2100,   123.859, 0.00000E+0, 2.00000E-1, 0.00000E+0, 0.00000E+0,1.00000,0,  100.0,   115.000,     0.000,   1,1.0000,   0,   1.0,   0,   1.0,   0,   1.0, 1, 1.0000
  2201,'AD',     0.000,     0.000, 99999.000,-99999.000,1.00000,  2201,   100.000, 0.00000E+0, 1.00000E+0, 0.00000E+0, 0.00000E+0,1.00000,1,  100.0, 99999.000,-99999.000,   1,1.0000
  2203,'AD',     0.000,     0.000, 99999.000,-99999.000,1.00000,  2203,   100.000, 0.00000E+0, 1.00000E+0, 0.00000E+0, 0.00000E+0,1.00000,1,  100.0, 99999.000,-99999.000,   1,1.0000
  2233,'DG',     0.000,   136.789,   304.000,  -304.000,1.00500,  2203,  1078.722, 0.00000E+0, 2.00000E-1, 0.00000E+0, 0.00000E+0,1.00000,0,  100.0,  1035.000,     0.000,   1,1.0000
  2233,'EG',     0.000,   242.861,   611.000,  -611.000,1.00500,  2203,  1935.947, 0.00000E+0, 2.00000E-1, 0.00000E+0, 0.00000E+0,1.00000,0,  100.0,  1837.000,     0.000,   1,1.0000
  2233,'TG',     0.000,    96.952,   206.000,  -206.000,1.00500,  2203,   761.397, 0.00000E+0, 2.00000E-1, 0.00000E+0, 0.00000E+0,1.00000,0,  100.0,   733.000,     0.000,   1,1.0000
  2301,'AD',     0.000,     0.000, 99999.000,-99999.000,1.00000,  2301,   100.000, 0.00000E+0, 1.00000E+0, 0.00000E+0, 0.00000E+0,1.00000,1,  100.0, 99999.000,-99999.000,   1,1.0000
  2332,'S ',     0.000,   128.939,   533.200,  -533.200,1.03500,  2302,  1435.685, 0.00000E+0, 2.00000E-1, 0.00000E+0, 0.00000E+0,1.00000,0,  100.0,  1333.000,     0.000,   1,1.0000,   0,   1.0,   0,   1.0,   0,   1.0, 1, 1.0000
  2400,'AD',     0.000,     0.000, 99999.000,-99999.000,1.00000,  2400,   100.000, 0.00000E+0, 1.00000E+0, 0.00000E+0, 0.00000E+0,1.00000,1,  100.0, 99999.000,-99999.000,   1,1.0000
  2401,'AD',     0.000,     0.000, 99999.000,-99999.000,1.00000,  2401,   100.000, 0.00000E+0, 1.00000E+0, 0.00000E+0, 0.00000E+0,1.00000,1,  100.0, 99999.000,-99999.000,   1,1.0000
  2402,'AD',     0.000,     0.000, 99999.000,-99999.000,1.00000,  2402,   100.000, 0.00000E+0, 1.00000E+0, 0.00000E+0, 0.00000E+0,1.00000,1,  100.0, 99999.000,-99999.000,   1,1.0000
  2403,'AD',     0.000,     0.000, 99999.000,-99999.000,1.00000,  2403,   100.000, 0.00000E+0, 1.00000E+0, 0.00000E+0, 0.00000E+0,1.00000,1,  100.0, 99999.000,-99999.000,   1,1.0000
  2404,'AD',     0.000,     0.000, 99999.000,-99999.000,1.00000,  2404,   100.000, 0.00000E+0, 1.00000E+0, 0.00000E+0, 0.00000E+0,1.00000,1,  100.0, 99999.000,-99999.000,   1,1.0000
  2405,'AD',     0.000,     0.000, 99999.000,-99999.000,1.00000,  2405,   100.000, 0.00000E+0, 1.00000E+0, 0.00000E+0, 0.00000E+0,1.00000,1,  100.0, 99999.000,-99999.000,   1,1.0000
  2406,'AD',     0.000,     0.000, 99999.000,-99999.000,1.00000,  2406,   100.000, 0.00000E+0, 1.00000E+0, 0.00000E+0, 0.00000E+0,1.00000,1,  100.0, 99999.000,-99999.000,   1,1.0000
  2407,'AD',     0.000,     0.000, 99999.000,-99999.000,1.00000,  2407,   100.000, 0.00000E+0, 1.00000E+0, 0.00000E+0, 0.00000E+0,1.00000,1,  100.0, 99999.000,-99999.000,   1,1.0000
  2408,'AD',     0.000,     0.000, 99999.000,-99999.000,1.00000,  2408,   100.000, 0.00000E+0, 1.00000E+0, 0.00000E+0, 0.00000E+0,1.00000,1,  100.0, 99999.000,-99999.000,   1,1.0000
  2410,'AD',     0.000,     0.000, 99999.000,-99999.000,1.00000,  2410,   100.000, 0.00000E+0, 1.00000E+0, 0.00000E+0, 0.00000E+0,1.00000,1,  100.0, 99999.000,-99999.000,   1,1.0000
  2431,'S ',     0.000,   367.573,   666.400,  -666.400,1.05000,  2431,  1794.337, 0.00000E+0, 2.00000E-1, 0.00000E+0, 0.00000E+0,1.00000,0,  100.0,  1666.000,     0.000,   1,1.0000,   0,   1.0,   0,   1.0,   0,   1.0, 1, 1.0000
  2434,'S ',     0.000,  -213.713,   500.000,  -500.000,1.02000,  2434,  1570.707, 0.00000E+0, 2.00000E-1, 0.00000E+0, 0.00000E+0,1.00000,0,  100.0,  1489.000,     0.000,   1,1.0000,   0,   1.0,   0,   1.0,   0,   1.0, 1, 1.0000
  2438,'EG',     0.000,    29.463,   728.000,  -728.000,1.00900,  2408,  2404.838, 0.00000E+0, 2.00000E-1, 0.00000E+0, 0.00000E+0,1.00000,0,  100.0,  2292.000,     0.000,   1,1.0000
  2438,'ND',     0.000,     0.000,     0.500,    -0.500,1.00900,  2408,     0.500, 0.00000E+0, 2.00000E-1, 0.00000E+0, 0.00000E+0,1.00000,0,  100.0,     0.000, -1006.000,   1,1.0000
  2438,'RG',     0.000,    70.054,  1902.000, -1902.000,1.00900,  2408,  5773.301, 0.00000E+0, 2.00000E-1, 0.00000E+0, 0.00000E+0,1.00000,0,  100.0,  5451.000,     0.000,   1,1.0000
  2438,'S ',     0.000,    14.702,   458.400,  -458.400,1.00900,  2408,  1234.280, 0.00000E+0, 2.00000E-1, 0.00000E+0, 0.00000E+0,1.00000,0,  100.0,  1146.000,     0.000,   1,1.0000,   0,   1.0,   0,   1.0,   0,   1.0, 1, 1.0000
  2438,'SG',     0.000,    52.775,  1644.000, -1644.000,1.00900,  2408,  4426.605, 0.00000E+0, 2.00000E-1, 0.00000E+0, 0.00000E+0,1.00000,0,  100.0,  4110.000,     0.000,   1,1.0000
  2438,'SH',   478.902,   584.000,   584.000,  -584.000,1.00900,  2408,  1572.468, 0.00000E+0, 2.00000E-1, 0.00000E+0, 0.00000E+0,1.00000,1,  100.0,  1460.000,     0.000,   1,1.0000
  2438,'SW',  2414.779,   561.000,   561.000,  -561.000,1.00900,  2408,  3258.653, 0.00000E+0, 2.00000E-1, 0.00000E+0, 0.00000E+0,1.00000,1,  100.0,  3210.000,     0.000,   1,1.0000,   0,   1.0,   0,   1.0,   0,   1.0, 1, 1.0000
  2438,'WG',     0.000,    74.740,  1910.000, -1910.000,1.00900,  2408,  6122.547, 0.00000E+0, 2.00000E-1, 0.00000E+0, 0.00000E+0,1.00000,0,  100.0,  5817.000,     0.000,   1,1.0000
  2439,'S ',     0.000,  -206.012,   666.400,  -666.400,1.02000,  2409,  1794.337, 0.00000E+0, 2.00000E-1, 0.00000E+0, 0.00000E+0,1.00000,0,  100.0,  1666.000,     0.000,   1,1.0000,   0,   1.0,   0,   1.0,   0,   1.0, 1, 1.0000
  2501,'AD',     0.000,     0.000, 99999.000,-99999.000,1.00000,  2501,   100.000, 0.00000E+0, 1.00000E+0, 0.00000E+0, 0.00000E+0,1.00000,1,  100.0, 99999.000,-99999.000,   1,1.0000
  2503,'AD',     0.000,     0.000, 99999.000,-99999.000,1.00000,  2503,   100.000, 0.00000E+0, 1.00000E+0, 0.00000E+0, 0.00000E+0,1.00000,1,  100.0, 99999.000,-99999.000,   1,1.0000
  2533,'S ',     0.000,   224.930,   799.600,  -799.600,1.00900,  2503,  2152.989, 0.00000E+0, 2.00000E-1, 0.00000E+0, 0.00000E+0,1.00000,0,  100.0,  1999.000,     0.000,   1,1.0000,   0,   1.0,   0,   1.0,   0,   1.0, 1, 1.0000
  2600,'AD',     0.000,     0.000, 99999.000,-99999.000,1.00000,  2600,   100.000, 0.00000E+0, 1.00000E+0, 0.00000E+0, 0.00000E+0,1.00000,1,  100.0, 99999.000,-99999.000,   1,1.0000
  2601,'AD',     0.000,     0.000, 99999.000,-99999.000,1.00000,  2601,   100.000, 0.00000E+0, 1.00000E+0, 0.00000E+0, 0.00000E+0,1.00000,1,  100.0, 99999.000,-99999.000,   1,1.0000
  2602,'AD',     0.000,     0.000, 99999.000,-99999.000,1.00000,  2602,   100.000, 0.00000E+0, 1.00000E+0, 0.00000E+0, 0.00000E+0,1.00000,1,  100.0, 99999.000,-99999.000,   1,1.0000
  2603,'AD',     0.000,     0.000, 99999.000,-99999.000,1.00000,  2603,   100.000, 0.00000E+0, 1.00000E+0, 0.00000E+0, 0.00000E+0,1.00000,1,  100.0, 99999.000,-99999.000,   1,1.0000
  2604,'AD',     0.000,     0.000, 99999.000,-99999.000,1.00000,  2604,   100.000, 0.00000E+0, 1.00000E+0, 0.00000E+0, 0.00000E+0,1.00000,1,  100.0, 99999.000,-99999.000,   1,1.0000
  2608,'AD',     0.000,     0.000, 99999.000,-99999.000,1.00000,  2608,   100.000, 0.00000E+0, 1.00000E+0, 0.00000E+0, 0.00000E+0,1.00000,1,  100.0, 99999.000,-99999.000,   1,1.0000
  2609,'AD',     0.000,     0.000, 99999.000,-99999.000,1.00000,  2609,   100.000, 0.00000E+0, 1.00000E+0, 0.00000E+0, 0.00000E+0,1.00000,1,  100.0, 99999.000,-99999.000,   1,1.0000
  2610,'AD',     0.000,     0.000, 99999.000,-99999.000,1.00000,  2610,   100.000, 0.00000E+0, 1.00000E+0, 0.00000E+0, 0.00000E+0,1.00000,1,  100.0, 99999.000,-99999.000,   1,1.0000
  2611,'AD',     0.000,     0.000, 99999.000,-99999.000,1.00000,  2611,   100.000, 0.00000E+0, 1.00000E+0, 0.00000E+0, 0.00000E+0,1.00000,1,  100.0, 99999.000,-99999.000,   1,1.0000
  2613,'AD',     0.000,     0.000, 99999.000,-99999.000,1.00000,  2613,   100.000, 0.00000E+0, 1.00000E+0, 0.00000E+0, 0.00000E+0,1.00000,1,  100.0, 99999.000,-99999.000,   1,1.0000
  2630,'G ',     0.000,   203.269,  1346.000, -1346.000,1.00400,  2610,  4170.195, 0.00000E+0, 2.00000E-1, 0.00000E+0, 0.00000E+0,1.00000,0,  100.0,  3947.000,     0.000,   1,1.0000
  2631,'S ',     0.000,    72.187,   208.000,  -208.000,1.01500,  2611,   560.057, 0.00000E+0, 2.00000E-1, 0.00000E+0, 0.00000E+0,1.00000,0,  100.0,   520.000,     0.000,   1,1.0000,   0,   1.0,   0,   1.0,   0,   1.0, 1, 1.0000
  2634,'C ',   323.600,   -32.006,   647.200,  -647.200,1.03000,  2604,  1742.639, 0.00000E+0, 2.00000E-1, 0.00000E+0, 0.00000E+0,1.00000,1,  100.0,  1618.000,     0.000,   1,1.0000
  2637,'H ',    19.938,    34.800,    34.800,   -34.800,1.03000,  2612,    93.702, 0.00000E+0, 2.00000E-1, 0.00000E+0, 0.00000E+0,1.00000,1,  100.0,    87.000,     0.000,   1,1.0000
  2638,'H ',    93.271,  -100.000,   100.000,  -100.000,1.01500,  2608,   419.105, 0.00000E+0, 2.00000E-1, 0.00000E+0, 0.00000E+0,1.00000,1,  100.0,   407.000,     0.000,   1,1.0000
  2901,'AD',     0.000,     0.000, 99999.000,-99999.000,1.00000,  2901,   100.000, 0.00000E+0, 1.00000E+0, 0.00000E+0, 0.00000E+0,1.00000,1,  100.0, 99999.000,-99999.000,   1,1.0000
  2902,'AD',     0.000,     0.000, 99999.000,-99999.000,1.00000,  2902,   100.000, 0.00000E+0, 1.00000E+0, 0.00000E+0, 0.00000E+0,1.00000,1,  100.0, 99999.000,-99999.000,   1,1.0000
  3101,'AD',     0.000,     0.000, 99999.000,-99999.000,1.00000,  3101,   100.000, 0.00000E+0, 1.00000E+0, 0.00000E+0, 0.00000E+0,1.00000,1,  100.0, 99999.000,-99999.000,   1,1.0000
  3102,'AD',     0.000,     0.000, 99999.000,-99999.000,1.00000,  3102,   100.000, 0.00000E+0, 1.00000E+0, 0.00000E+0, 0.00000E+0,1.00000,1,  100.0, 99999.000,-99999.000,   1,1.0000
  3103,'AD',     0.000,     0.000, 99999.000,-99999.000,1.00000,  3103,   100.000, 0.00000E+0, 1.00000E+0, 0.00000E+0, 0.00000E+0,1.00000,1,  100.0, 99999.000,-99999.000,   1,1.0000
  3105,'AD',     0.000,     0.000, 99999.000,-99999.000,1.00000,  3105,   100.000, 0.00000E+0, 1.00000E+0, 0.00000E+0, 0.00000E+0,1.00000,1,  100.0, 99999.000,-99999.000,   1,1.0000
  3133,'NG',     0.000,    24.800,    24.800,   -24.800,1.00000,  3103,    66.776, 0.00000E+0, 2.00000E-1, 0.00000E+0, 0.00000E+0,1.00000,0,  100.0,    62.000,     0.000,   1,1.0000
  3133,'SC',     0.000,     0.000,   500.000,  -500.000,1.00000,  3103,   500.000, 0.00000E+0, 2.00000E-1, 0.00000E+0, 0.00000E+0,1.00000,0,  100.0,     0.100,     0.000,   1,1.0000
  3135,'MG',    74.042,   216.400,   216.400,  -216.400,1.00000,  3105,   582.675, 0.00000E+0, 2.00000E-1, 0.00000E+0, 0.00000E+0,1.00000,1,  100.0,   541.000,     0.000,   1,1.0000
  3135,'NG',     0.000,     6.381,    15.200,   -15.200,1.00000,  3105,    40.927, 0.00000E+0, 2.00000E-1, 0.00000E+0, 0.00000E+0,1.00000,0,  100.0,    38.000,     0.000,   1,1.0000
  3201,'AD',     0.000,     0.000, 99999.000,-99999.000,1.00000,  3201,   100.000, 0.00000E+0, 1.00000E+0, 0.00000E+0, 0.00000E+0,1.00000,1,  100.0, 99999.000,-99999.000,   1,1.0000
  3202,'AD',     0.000,     0.000, 99999.000,-99999.000,1.00000,  3202,   100.000, 0.00000E+0, 1.00000E+0, 0.00000E+0, 0.00000E+0,1.00000,1,  100.0, 99999.000,-99999.000,   1,1.0000
  3203,'AD',     0.000,     0.000, 99999.000,-99999.000,1.00000,  3203,   100.000, 0.00000E+0, 1.00000E+0, 0.00000E+0, 0.00000E+0,1.00000,1,  100.0, 99999.000,-99999.000,   1,1.0000
  3204,'AD',     0.000,     0.000, 99999.000,-99999.000,1.00000,  3204,   100.000, 0.00000E+0, 1.00000E+0, 0.00000E+0, 0.00000E+0,1.00000,1,  100.0, 99999.000,-99999.000,   1,1.0000
  3205,'AD',     0.000,     0.000, 99999.000,-99999.000,1.00000,  3205,   100.000, 0.00000E+0, 1.00000E+0, 0.00000E+0, 0.00000E+0,1.00000,1,  100.0, 99999.000,-99999.000,   1,1.0000
  3234,'DG',     0.000,    15.032,    70.800,   -70.800,1.01000,  3204,   190.635, 0.00000E+0, 2.00000E-1, 0.00000E+0, 0.00000E+0,1.00000,0,  100.0,   177.000,     0.000,   1,1.0000
  3234,'MG',     0.000,   326.797,  1244.000, -1244.000,1.01000,  3204,  4048.845, 0.00000E+0, 2.00000E-1, 0.00000E+0, 0.00000E+0,1.00000,0,  100.0,  3853.000,     0.000,   1,1.0000
  3234,'NG',     0.000,    87.878,   382.000,  -382.000,1.01000,  3204,  1105.121, 0.00000E+0, 2.00000E-1, 0.00000E+0, 0.00000E+0,1.00000,0,  100.0,  1037.000,     0.000,   1,1.0000
  3234,'NW',   655.737,  -150.000,   150.000,  -150.000,1.01000,  3204,  1746.453, 0.00000E+0, 2.00000E-1, 0.00000E+0, 0.00000E+0,1.00000,1,  100.0,  1740.000,     0.000,   1,1.0000,   0,   1.0,   0,   1.0,   0,   1.0, 1, 1.0000
...